@<TRIPOS>MOLECULE
*****
 44 44 0 0 0
SMALL
GASTEIGER

@<TRIPOS>ATOM
     1 C        -4.6512    3.0471   -3.8436 C.ar    1 UNL1 0.0000
     2 C        -3.2841    3.2853   -3.9984 C.ar    1 UNL1 0.0000
     3 N        -2.4060    2.7631   -3.1052 N.ar    1 UNL1 0.0000
     4 C        -2.8407    2.0112   -2.0622 C.ar    1 UNL1 0.0000
     5 H        -1.3835    2.9417   -3.2217 H       1 UNL1 0.0000
     6 C        -4.2078    1.7702   -1.9035 C.ar    1 UNL1 0.0000
     7 N        -5.1089    2.2917   -2.7986 N.ar    1 UNL1 0.0000
     8 H        -2.1308    1.5995   -1.3557 H       1 UNL1 0.0000
     9 H        -4.5157    1.1674   -1.0616 H       1 UNL1 0.0000
    10 H        -5.3417    3.4703   -4.5644 H       1 UNL1 0.0000
    11 H        -2.9274    3.8837   -4.8273 H       1 UNL1 0.0000
    12 C        -6.5712    2.0883   -2.7079 C.3     1 UNL1 0.0000
    13 C        -7.0399    1.2332   -1.5174 C.3     1 UNL1 0.0000
    14 H        -6.9182    1.5976   -3.6447 H       1 UNL1 0.0000
    15 H        -7.0619    3.0844   -2.6331 H       1 UNL1 0.0000
    16 C        -8.5618    1.0855   -1.5149 C.3     1 UNL1 0.0000
    17 H        -6.7284    1.7197   -0.5673 H       1 UNL1 0.0000
    18 H        -6.5844    0.2211   -1.5871 H       1 UNL1 0.0000
    19 SI       -9.1334   -0.0000    0.0000 Si      1 UNL1 0.0000
    20 H        -8.9003    0.5921   -2.4507 H       1 UNL1 0.0000
    21 H        -9.0431    2.0836   -1.4357 H       1 UNL1 0.0000
    22 H        -8.4877   -1.4053   -0.1022 H       1 UNL1 0.0000
    23 H       -10.6772   -0.1350   -0.0172 H       1 UNL1 0.0000
    24 H        -8.6859    0.6814    1.3182 H       1 UNL1 0.0000
    25 C         2.6180    2.0031   -0.2692 C.ar    2 UNL2 0.0000
    26 C         4.5435    3.3824   -0.1391 C.ar    2 UNL2 0.0000
    27 C         1.7888    3.1272   -0.2838 C.ar    2 UNL2 0.0000
    28 C         3.7433    4.5282   -0.1514 C.ar    2 UNL2 0.0000
    29 C         2.3574    4.3980   -0.2243 C.ar    2 UNL2 0.0000
    30 H         4.2028    5.5083   -0.1045 H       2 UNL2 0.0000
    31 H         0.7137    3.0053   -0.3410 H       2 UNL2 0.0000
    32 N         3.9801    2.1299   -0.1978 N.ar    2 UNL2 0.0000
    33 H         5.6123    3.5273   -0.0819 H       2 UNL2 0.0000
    34 H         2.1594    1.0218   -0.3160 H       2 UNL2 0.0000
    35 C         4.7662    0.8766   -0.1891 C.3     2 UNL2 0.0000
    36 C         6.2922    1.0599   -0.1104 C.3     2 UNL2 0.0000
    37 H         4.5342    0.3084   -1.1175 H       2 UNL2 0.0000
    38 H         4.4458    0.2650    0.6839 H       2 UNL2 0.0000
    39 H         6.6426    1.6433   -0.9895 H       2 UNL2 0.0000
    40 C         7.0074   -0.2899   -0.1088 C.3     2 UNL2 0.0000
    41 H         6.5547    1.5991    0.8257 H       2 UNL2 0.0000
    42 H         6.7750   -0.8499   -1.0397 H       2 UNL2 0.0000
    43 H         6.6882   -0.8938    0.7671 H       2 UNL2 0.0000
    44 SI        9.1334   -0.0000   -0.0000 Si      2 UNL2 0.0000
    45 O         1.6481    5.3886   -0.2359 O.2     2 UNL2 0.0000
@<TRIPOS>BOND
     1     1     2   ar
     2     2     3   ar
     3     3     4   ar
     4     3     5    1
     5     4     6   ar
     6     6     7   ar
     7     1     7   ar
     8     4     8    1
     9     6     9    1
    10     1    10    1
    11     2    11    1
    12     7    12    1
    13    12    13    1
    14    12    14    1
    15    12    15    1
    16    13    16    1
    17    13    17    1
    18    13    18    1
    19    16    19    1
    20    16    20    1
    21    16    21    1
    22    19    22    1
    23    19    23    1
    24    19    24    1
    25    27    25   ar
    26    26    28   ar
    27    28    29   ar
    28    28    30    1
    29    27    29   ar
    30    27    31    1
    31    26    32   ar
    32    26    33    1
    33    32    25   ar
    34    25    34    1
    35    32    35    1
    36    35    36    1
    37    35    37    1
    38    35    38    1
    39    36    39    1
    40    36    40    1
    41    36    41    1
    42    40    42    1
    43    40    43    1
    44    40    44    1
    45    29    45    2
